
  Mrv2312 05132414293D          

 60 90  0  0  0  0            999 V2000
   -4.8329    1.1075   -3.2650 C   0  0  0  0  0  0  0  0  0  0  0  0
   -4.9605    2.3024   -2.5345 C   0  0  0  0  0  0  0  0  0  0  0  0
   -5.8048    0.0791   -3.1241 C   0  0  0  0  0  0  0  0  0  0  0  0
   -6.0641    2.4822   -1.6563 C   0  0  0  0  0  0  0  0  0  0  0  0
   -5.8705    3.0700   -0.3939 C   0  0  0  0  0  0  0  0  0  0  0  0
   -3.6751    2.7114   -2.1397 C   0  0  0  0  0  0  0  0  0  0  0  0
   -3.4785    3.3040   -0.8628 C   0  0  0  0  0  0  0  0  0  0  0  0
   -4.5703    3.4832    0.0048 C   0  0  0  0  0  0  0  0  0  0  0  0
   -4.0222   -1.5967   -3.1010 C   0  0  0  0  0  0  0  0  0  0  0  0
   -3.0608   -0.5798   -3.2404 C   0  0  0  0  0  0  0  0  0  0  0  0
   -5.4033   -1.2660   -3.0429 C   0  0  0  0  0  0  0  0  0  0  0  0
   -3.4670    0.7798   -3.3231 C   0  0  0  0  0  0  0  0  0  0  0  0
   -2.7509    1.7713   -2.6284 C   0  0  0  0  0  0  0  0  0  0  0  0
   -1.9424   -0.9323   -2.4658 C   0  0  0  0  0  0  0  0  0  0  0  0
   -1.2182    0.0696   -1.7646 C   0  0  0  0  0  0  0  0  0  0  0  0
   -1.6209    1.4144   -1.8445 C   0  0  0  0  0  0  0  0  0  0  0  0
   -5.7187   -2.9186   -1.2586 C   0  0  0  0  0  0  0  0  0  0  0  0
   -4.3511   -3.2433   -1.3155 C   0  0  0  0  0  0  0  0  0  0  0  0
   -6.2452   -1.9225   -2.1268 C   0  0  0  0  0  0  0  0  0  0  0  0
   -3.5001   -2.5788   -2.2417 C   0  0  0  0  0  0  0  0  0  0  0  0
   -2.2147   -2.1662   -1.8485 C   0  0  0  0  0  0  0  0  0  0  0  0
   -3.9071   -3.4873   -0.0039 C   0  0  0  0  0  0  0  0  0  0  0  0
   -2.6070   -3.0675    0.3932 C   0  0  0  0  0  0  0  0  0  0  0  0
   -1.7659   -2.4120   -0.5233 C   0  0  0  0  0  0  0  0  0  0  0  0
   -7.5712   -1.0203   -0.2773 C   0  0  0  0  0  0  0  0  0  0  0  0
   -7.0511   -2.0058    0.5819 C   0  0  0  0  0  0  0  0  0  0  0  0
   -7.1662   -0.9783   -1.6389 C   0  0  0  0  0  0  0  0  0  0  0  0
   -6.1201   -2.9617    0.0892 C   0  0  0  0  0  0  0  0  0  0  0  0
   -4.9993   -3.3134    0.8650 C   0  0  0  0  0  0  0  0  0  0  0  0
   -6.8525   -1.4135    1.8423 C   0  0  0  0  0  0  0  0  0  0  0  0
   -5.7203   -1.7699    2.6255 C   0  0  0  0  0  0  0  0  0  0  0  0
   -4.7994   -2.7140    2.1397 C   0  0  0  0  0  0  0  0  0  0  0  0
   -7.0255    1.4653   -1.5176 C   0  0  0  0  0  0  0  0  0  0  0  0
   -7.4260    1.4246   -0.1707 C   0  0  0  0  0  0  0  0  0  0  0  0
   -6.8953    0.2570   -2.2551 C   0  0  0  0  0  0  0  0  0  0  0  0
   -7.6983    0.1758    0.4521 C   0  0  0  0  0  0  0  0  0  0  0  0
   -7.2536   -0.0682    1.7629 C   0  0  0  0  0  0  0  0  0  0  0  0
   -6.7125    2.4177    0.5243 C   0  0  0  0  0  0  0  0  0  0  0  0
   -6.2627    2.1706    1.8501 C   0  0  0  0  0  0  0  0  0  0  0  0
   -6.5318    0.9355    2.4654 C   0  0  0  0  0  0  0  0  0  0  0  0
   -3.6400   -1.1054    3.2619 C   0  0  0  0  0  0  0  0  0  0  0  0
   -5.0051   -0.7770    3.3192 C   0  0  0  0  0  0  0  0  0  0  0  0
   -5.4128    0.5825    3.2393 C   0  0  0  0  0  0  0  0  0  0  0  0
   -2.6667   -0.0780    3.1252 C   0  0  0  0  0  0  0  0  0  0  0  0
   -1.4476   -1.4625    1.5172 C   0  0  0  0  0  0  0  0  0  0  0  0
   -2.4106   -2.4786    1.6542 C   0  0  0  0  0  0  0  0  0  0  0  0
   -3.5128   -2.3007    2.5324 C   0  0  0  0  0  0  0  0  0  0  0  0
   -1.5758   -0.2555    2.2566 C   0  0  0  0  0  0  0  0  0  0  0  0
   -0.9011    1.0198    0.2782 C   0  0  0  0  0  0  0  0  0  0  0  0
   -0.7739   -0.1735   -0.4533 C   0  0  0  0  0  0  0  0  0  0  0  0
   -1.0489   -1.4213    0.1700 C   0  0  0  0  0  0  0  0  0  0  0  0
   -1.3049    0.9789    1.6406 C   0  0  0  0  0  0  0  0  0  0  0  0
   -2.7603    2.9107    1.2591 C   0  0  0  0  0  0  0  0  0  0  0  0
   -2.3610    2.9501   -0.0877 C   0  0  0  0  0  0  0  0  0  0  0  0
   -1.4264    2.0001   -0.5813 C   0  0  0  0  0  0  0  0  0  0  0  0
   -2.2291    1.9192    2.1279 C   0  0  0  0  0  0  0  0  0  0  0  0
   -4.4514    1.5992    3.1036 C   0  0  0  0  0  0  0  0  0  0  0  0
   -4.9768    2.5808    2.2440 C   0  0  0  0  0  0  0  0  0  0  0  0
   -4.1259    3.2394    1.3160 C   0  0  0  0  0  0  0  0  0  0  0  0
   -3.0706    1.2666    3.0453 C   0  0  0  0  0  0  0  0  0  0  0  0
  1  2  2  0  0  0  0
  1  3  1  0  0  0  0
  1 12  1  0  0  0  0
  2  4  1  0  0  0  0
  2  6  1  0  0  0  0
  3 11  2  0  0  0  0
  3 35  1  0  0  0  0
  4  5  2  0  0  0  0
  4 33  1  0  0  0  0
  5  8  1  0  0  0  0
  5 38  1  0  0  0  0
  6  7  2  0  0  0  0
  6 13  1  0  0  0  0
  7  8  1  0  0  0  0
  7 54  1  0  0  0  0
  8 59  2  0  0  0  0
  9 10  2  0  0  0  0
  9 11  1  0  0  0  0
  9 20  1  0  0  0  0
 10 12  1  0  0  0  0
 10 14  1  0  0  0  0
 11 19  1  0  0  0  0
 12 13  2  0  0  0  0
 13 16  1  0  0  0  0
 14 15  2  0  0  0  0
 14 21  1  0  0  0  0
 15 16  1  0  0  0  0
 15 50  1  0  0  0  0
 16 55  2  0  0  0  0
 17 18  1  0  0  0  0
 17 19  2  0  0  0  0
 17 28  1  0  0  0  0
 18 20  2  0  0  0  0
 18 22  1  0  0  0  0
 19 27  1  0  0  0  0
 20 21  1  0  0  0  0
 21 24  2  0  0  0  0
 22 23  2  0  0  0  0
 22 29  1  0  0  0  0
 23 24  1  0  0  0  0
 23 46  1  0  0  0  0
 24 51  1  0  0  0  0
 25 26  1  0  0  0  0
 25 27  2  0  0  0  0
 25 36  1  0  0  0  0
 26 28  2  0  0  0  0
 26 30  1  0  0  0  0
 27 35  1  0  0  0  0
 28 29  1  0  0  0  0
 29 32  2  0  0  0  0
 30 31  2  0  0  0  0
 30 37  1  0  0  0  0
 31 32  1  0  0  0  0
 31 42  1  0  0  0  0
 32 47  1  0  0  0  0
 33 34  1  0  0  0  0
 33 35  2  0  0  0  0
 34 36  2  0  0  0  0
 34 38  1  0  0  0  0
 36 37  1  0  0  0  0
 37 40  2  0  0  0  0
 38 39  2  0  0  0  0
 39 40  1  0  0  0  0
 39 58  1  0  0  0  0
 40 43  1  0  0  0  0
 41 42  1  0  0  0  0
 41 44  2  0  0  0  0
 41 47  1  0  0  0  0
 42 43  2  0  0  0  0
 43 57  1  0  0  0  0
 44 48  1  0  0  0  0
 44 60  1  0  0  0  0
 45 46  1  0  0  0  0
 45 48  2  0  0  0  0
 45 51  1  0  0  0  0
 46 47  2  0  0  0  0
 48 52  1  0  0  0  0
 49 50  1  0  0  0  0
 49 52  2  0  0  0  0
 49 55  1  0  0  0  0
 50 51  2  0  0  0  0
 52 56  1  0  0  0  0
 53 54  2  0  0  0  0
 53 56  1  0  0  0  0
 53 59  1  0  0  0  0
 54 55  1  0  0  0  0
 56 60  2  0  0  0  0
 57 58  2  0  0  0  0
 57 60  1  0  0  0  0
 58 59  1  0  0  0  0
M  END
